@<TRIPOS>MOLECULE
LIG
68 74 1 0 0 
SMALL
NO_CHARGES


@<TRIPOS>ATOM
  1 P1     -33.2910    14.1660    -3.9250 P.3   1 LIG   0.0000
  2 O1     -32.0120    14.6210    -4.5260 O.co2 1 LIG   0.0000
  3 O2     -33.4990    14.7870    -2.5950 O.co2 1 LIG   0.0000
  4 O3     -33.3420    12.5560    -3.8370 O.3   1 LIG   0.0000
  5 C1     -32.8930    11.7560    -4.9360 C.3   1 LIG   0.0000
  6 H1     -31.8010    11.7690    -4.9900 H     1 LIG   0.0000
  7 H2     -33.2720    12.1710    -5.8790 H     1 LIG   0.0000
  8 C2     -33.4270    10.3060    -4.7840 C.3   1 LIG   0.0000
  9 H3     -32.9840     9.6730    -5.5600 H     1 LIG   0.0000
 10 O4     -33.1380     9.7310    -3.4900 O.3   1 LIG   0.0000
 11 C3     -34.9480    10.2420    -4.8830 C.3   1 LIG   0.0000
 12 H4     -35.3870    11.0790    -4.3410 H     1 LIG   0.0000
 13 O5     -35.3430    10.2680    -6.2670 O.3   1 LIG   0.0000
 14 C4     -35.3360     8.9710    -4.1320 C.3   1 LIG   0.0000
 15 H5     -36.3430     9.0590    -3.7010 H     1 LIG   0.0000
 16 O6     -35.2500     7.8280    -4.9880 O.3   1 LIG   0.0000
 17 H6     -36.0930     7.8230    -5.4860 H     1 LIG   0.0000
 18 C5     -34.2580     8.9290    -3.0160 C.3   1 LIG   0.0000
 19 H7     -33.9310     7.9020    -2.8260 H     1 LIG   0.0000
 20 N1     -34.7280     9.4680    -1.7330 N.pl3 1 LIG   0.0000
 21 C6     -34.7320    10.7910    -1.3150 C.2   1 LIG   0.0000
 22 H8     -34.4330    11.6000    -1.9620 H     1 LIG   0.0000
 23 N2     -35.1090    10.9180    -0.0480 N.2   1 LIG   0.0000
 24 C7     -35.4410     9.6480     0.3540 C.2   1 LIG   0.0000
 25 C8     -35.9540     9.2290     1.6650 C.2   1 LIG   0.0000
 26 O7     -36.1190     9.9630     2.6270 O.2   1 LIG   0.0000
 27 N3     -36.2320     7.8870     1.6910 N.am  1 LIG   0.0000
 28 H9     -36.6200     7.5150     2.5450 H     1 LIG   0.0000
 29 C9     -36.0400     7.0540     0.6040 C.2   1 LIG   0.0000
 30 N4     -36.4120     5.7590     0.7810 N.pl3 1 LIG   0.0000
 31 H10    -36.4530     5.1890    -0.0520 H     1 LIG   0.0000
 32 H11    -37.0170     5.5310     1.5570 H     1 LIG   0.0000
 33 N5     -35.5280     7.4140    -0.5690 N.2   1 LIG   0.0000
 34 C10    -35.2360     8.7690    -0.6710 C.2   1 LIG   0.0000
 35 P2     -36.8920    10.3140    -6.7110 P.3   1 LIG   0.0000
 36 O8     -37.0020    10.3150    -8.1910 O.co2 1 LIG   0.0000
 37 O9     -37.6440     9.1790    -6.1220 O.co2 1 LIG   0.0000
 38 O10    -37.2870    11.7420    -6.0680 O.3   1 LIG   0.0000
 39 C11    -36.8850    12.9680    -6.7060 C.3   1 LIG   0.0000
 40 H12    -37.5700    13.1990    -7.5310 H     1 LIG   0.0000
 41 H13    -35.8740    12.8650    -7.1220 H     1 LIG   0.0000
 42 C12    -36.8860    14.1360    -5.6820 C.3   1 LIG   0.0000
 43 H14    -36.6710    15.0760    -6.2070 H     1 LIG   0.0000
 44 O11    -38.1670    14.2510    -5.0090 O.3   1 LIG   0.0000
 45 C13    -35.8790    13.9720    -4.5360 C.3   1 LIG   0.0000
 46 H15    -35.8690    12.9320    -4.2160 H     1 LIG   0.0000
 47 O12    -34.5510    14.3930    -4.9160 O.3   1 LIG   0.0000
 48 C14    -36.4920    14.7870    -3.4010 C.3   1 LIG   0.0000
 49 H16    -36.0990    14.4760    -2.4250 H     1 LIG   0.0000
 50 O13    -36.2930    16.1880    -3.6120 O.3   1 LIG   0.0000
 51 H17    -35.3370    16.3450    -3.5000 H     1 LIG   0.0000
 52 C15    -37.9840    14.4100    -3.5720 C.3   1 LIG   0.0000
 53 H18    -38.6420    15.1950    -3.1820 H     1 LIG   0.0000
 54 N6     -38.3440    13.1500    -2.8850 N.pl3 1 LIG   0.0000
 55 C16    -38.8820    11.9920    -3.4380 C.2   1 LIG   0.0000
 56 H19    -39.1540    11.9250    -4.4820 H     1 LIG   0.0000
 57 N7     -39.0140    11.0180    -2.5430 N.2   1 LIG   0.0000
 58 C17    -38.5870    11.5610    -1.3540 C.2   1 LIG   0.0000
 59 C18    -38.5310    10.9180    -0.0290 C.2   1 LIG   0.0000
 60 O14    -38.8420     9.7660     0.2200 O.2   1 LIG   0.0000
 61 N8     -38.0660    11.7790     0.9300 N.am  1 LIG   0.0000
 62 H20    -37.9720    11.4110     1.8650 H     1 LIG   0.0000
 63 C19    -37.6830    13.0770     0.6610 C.2   1 LIG   0.0000
 64 N9     -37.2090    13.7860     1.7180 N.pl3 1 LIG   0.0000
 65 H21    -36.8090    14.6940     1.5200 H     1 LIG   0.0000
 66 H22    -36.9880    13.3070     2.5770 H     1 LIG   0.0000
 67 N10    -37.7280    13.6660    -0.5270 N.2   1 LIG   0.0000
 68 C20    -38.1990    12.8570    -1.5540 C.2   1 LIG   0.0000
@<TRIPOS>BOND
  1   1   2  ar  
  2   1   3  ar  
  3   1   4  1   
  4   1  47  1   
  5   4   5  1   
  6   5   6  1   
  7   5   7  1   
  8   5   8  1   
  9   8   9  1   
 10   8  10  1   
 11   8  11  1   
 12  10  18  1   
 13  11  12  1   
 14  11  13  1   
 15  11  14  1   
 16  13  35  1   
 17  14  15  1   
 18  14  16  1   
 19  14  18  1   
 20  16  17  1   
 21  18  19  1   
 22  18  20  1   
 23  20  21  1   
 24  20  34  1   
 25  21  22  1   
 26  21  23  2   
 27  23  24  1   
 28  24  25  1   
 29  24  34  2   
 30  25  26  2   
 31  25  27  am  
 32  27  28  1   
 33  27  29  1   
 34  29  30  1   
 35  29  33  2   
 36  30  31  1   
 37  30  32  1   
 38  33  34  1   
 39  35  36  ar  
 40  35  37  ar  
 41  35  38  1   
 42  38  39  1   
 43  39  40  1   
 44  39  41  1   
 45  39  42  1   
 46  42  43  1   
 47  42  44  1   
 48  42  45  1   
 49  44  52  1   
 50  45  46  1   
 51  45  47  1   
 52  45  48  1   
 53  48  49  1   
 54  48  50  1   
 55  48  52  1   
 56  50  51  1   
 57  52  53  1   
 58  52  54  1   
 59  54  55  1   
 60  54  68  1   
 61  55  56  1   
 62  55  57  2   
 63  57  58  1   
 64  58  59  1   
 65  58  68  2   
 66  59  60  2   
 67  59  61  am  
 68  61  62  1   
 69  61  63  1   
 70  63  64  1   
 71  63  67  2   
 72  64  65  1   
 73  64  66  1   
 74  67  68  1   
@<TRIPOS>SUBSTRUCTURE
  1 LIG  11 GROUP 4 **** **** 0
