LIG
                    3D
 Structure written by MMmdl.
 68 74  0  0  1  0            999 V2000
  -33.2910   14.1660   -3.9250 P   0  0  0  0  0  0
  -32.0120   14.6210   -4.5260 O   0  0  0  0  0  0
  -33.4990   14.7870   -2.5950 O   0  5  0  0  0  0
  -33.3420   12.5560   -3.8370 O   0  0  0  0  0  0
  -32.8930   11.7560   -4.9360 C   0  0  0  0  0  0
  -31.8010   11.7690   -4.9900 H   0  0  0  0  0  0
  -33.2720   12.1710   -5.8790 H   0  0  0  0  0  0
  -33.4270   10.3060   -4.7840 C   0  0  1  0  0  0
  -32.9840    9.6730   -5.5600 H   0  0  0  0  0  0
  -33.1380    9.7310   -3.4900 O   0  0  0  0  0  0
  -34.9480   10.2420   -4.8830 C   0  0  1  0  0  0
  -35.3870   11.0790   -4.3410 H   0  0  0  0  0  0
  -35.3430   10.2680   -6.2670 O   0  0  0  0  0  0
  -35.3360    8.9710   -4.1320 C   0  0  1  0  0  0
  -36.3430    9.0590   -3.7010 H   0  0  0  0  0  0
  -35.2500    7.8280   -4.9880 O   0  0  0  0  0  0
  -36.0930    7.8230   -5.4860 H   0  0  0  0  0  0
  -34.2580    8.9290   -3.0160 C   0  0  2  0  0  0
  -33.9310    7.9020   -2.8260 H   0  0  0  0  0  0
  -34.7280    9.4680   -1.7330 N   0  0  0  0  0  0
  -34.7320   10.7910   -1.3150 C   0  0  0  0  0  0
  -34.4330   11.6000   -1.9620 H   0  0  0  0  0  0
  -35.1090   10.9180   -0.0480 N   0  0  0  0  0  0
  -35.4410    9.6480    0.3540 C   0  0  0  0  0  0
  -35.9540    9.2290    1.6650 C   0  0  0  0  0  0
  -36.1190    9.9630    2.6270 O   0  0  0  0  0  0
  -36.2320    7.8870    1.6910 N   0  0  0  0  0  0
  -36.6200    7.5150    2.5450 H   0  0  0  0  0  0
  -36.0400    7.0540    0.6040 C   0  0  0  0  0  0
  -36.4120    5.7590    0.7810 N   0  0  0  0  0  0
  -36.4530    5.1890   -0.0520 H   0  0  0  0  0  0
  -37.0170    5.5310    1.5570 H   0  0  0  0  0  0
  -35.5280    7.4140   -0.5690 N   0  0  0  0  0  0
  -35.2360    8.7690   -0.6710 C   0  0  0  0  0  0
  -36.8920   10.3140   -6.7110 P   0  0  0  0  0  0
  -37.0020   10.3150   -8.1910 O   0  0  0  0  0  0
  -37.6440    9.1790   -6.1220 O   0  5  0  0  0  0
  -37.2870   11.7420   -6.0680 O   0  0  0  0  0  0
  -36.8850   12.9680   -6.7060 C   0  0  0  0  0  0
  -37.5700   13.1990   -7.5310 H   0  0  0  0  0  0
  -35.8740   12.8650   -7.1220 H   0  0  0  0  0  0
  -36.8860   14.1360   -5.6820 C   0  0  1  0  0  0
  -36.6710   15.0760   -6.2070 H   0  0  0  0  0  0
  -38.1670   14.2510   -5.0090 O   0  0  0  0  0  0
  -35.8790   13.9720   -4.5360 C   0  0  1  0  0  0
  -35.8690   12.9320   -4.2160 H   0  0  0  0  0  0
  -34.5510   14.3930   -4.9160 O   0  0  0  0  0  0
  -36.4920   14.7870   -3.4010 C   0  0  1  0  0  0
  -36.0990   14.4760   -2.4250 H   0  0  0  0  0  0
  -36.2930   16.1880   -3.6120 O   0  0  0  0  0  0
  -35.3370   16.3450   -3.5000 H   0  0  0  0  0  0
  -37.9840   14.4100   -3.5720 C   0  0  2  0  0  0
  -38.6420   15.1950   -3.1820 H   0  0  0  0  0  0
  -38.3440   13.1500   -2.8850 N   0  0  0  0  0  0
  -38.8820   11.9920   -3.4380 C   0  0  0  0  0  0
  -39.1540   11.9250   -4.4820 H   0  0  0  0  0  0
  -39.0140   11.0180   -2.5430 N   0  0  0  0  0  0
  -38.5870   11.5610   -1.3540 C   0  0  0  0  0  0
  -38.5310   10.9180   -0.0290 C   0  0  0  0  0  0
  -38.8420    9.7660    0.2200 O   0  0  0  0  0  0
  -38.0660   11.7790    0.9300 N   0  0  0  0  0  0
  -37.9720   11.4110    1.8650 H   0  0  0  0  0  0
  -37.6830   13.0770    0.6610 C   0  0  0  0  0  0
  -37.2090   13.7860    1.7180 N   0  0  0  0  0  0
  -36.8090   14.6940    1.5200 H   0  0  0  0  0  0
  -36.9880   13.3070    2.5770 H   0  0  0  0  0  0
  -37.7280   13.6660   -0.5270 N   0  0  0  0  0  0
  -38.1990   12.8570   -1.5540 C   0  0  0  0  0  0
  1  2  2  0  0  0
  1  3  1  0  0  0
  1  4  1  0  0  0
  1 47  1  0  0  0
  4  5  1  0  0  0
  5  6  1  0  0  0
  5  7  1  0  0  0
  5  8  1  0  0  0
  8  9  1  0  0  0
  8 10  1  0  0  0
  8 11  1  0  0  0
 10 18  1  0  0  0
 11 12  1  0  0  0
 11 13  1  0  0  0
 11 14  1  0  0  0
 13 35  1  0  0  0
 14 15  1  0  0  0
 14 16  1  0  0  0
 14 18  1  0  0  0
 16 17  1  0  0  0
 18 19  1  0  0  0
 18 20  1  0  0  0
 20 21  1  0  0  0
 20 34  1  0  0  0
 21 22  1  0  0  0
 21 23  2  0  0  0
 23 24  1  0  0  0
 24 25  1  0  0  0
 24 34  2  0  0  0
 25 26  2  0  0  0
 25 27  1  0  0  0
 27 28  1  0  0  0
 27 29  1  0  0  0
 29 30  1  0  0  0
 29 33  2  0  0  0
 30 31  1  0  0  0
 30 32  1  0  0  0
 33 34  1  0  0  0
 35 36  2  0  0  0
 35 37  1  0  0  0
 35 38  1  0  0  0
 38 39  1  0  0  0
 39 40  1  0  0  0
 39 41  1  0  0  0
 39 42  1  0  0  0
 42 43  1  0  0  0
 42 44  1  0  0  0
 42 45  1  0  0  0
 44 52  1  0  0  0
 45 46  1  0  0  0
 45 47  1  0  0  0
 45 48  1  0  0  0
 48 49  1  0  0  0
 48 50  1  0  0  0
 48 52  1  0  0  0
 50 51  1  0  0  0
 52 53  1  0  0  0
 52 54  1  0  0  0
 54 55  1  0  0  0
 54 68  1  0  0  0
 55 56  1  0  0  0
 55 57  2  0  0  0
 57 58  1  0  0  0
 58 59  1  0  0  0
 58 68  2  0  0  0
 59 60  2  0  0  0
 59 61  1  0  0  0
 61 62  1  0  0  0
 61 63  1  0  0  0
 63 64  1  0  0  0
 63 67  2  0  0  0
 64 65  1  0  0  0
 64 66  1  0  0  0
 67 68  1  0  0  0
M  CHG  2   3  -1  37  -1
M  END
> <chiral flag>
1

> <version>
0

> <chiral flag>
1

$$$$
