@<TRIPOS>MOLECULE
LIG
27 26 1 0 0 
SMALL
NO_CHARGES


@<TRIPOS>ATOM
  1 O1     -42.2510   -16.7380    -0.7450 O.co2 1 LIG   0.0000
  2 C1     -41.4390   -17.6240    -0.5580 C.2   1 LIG   0.0000
  3 O2     -40.2340   -17.5250    -0.6810 O.co2 1 LIG   0.0000
  4 C2     -41.9660   -18.9610    -0.0460 C.3   1 LIG   0.0000
  5 H1     -43.0560   -18.9430    -0.0470 H     1 LIG   0.0000
  6 H2     -41.5980   -19.0920     0.9720 H     1 LIG   0.0000
  7 N1     -41.4870   -20.1420    -0.8850 N.4   1 LIG   0.0000
  8 H3     -40.4650   -20.0650    -1.0370 H     1 LIG   0.0000
  9 H4     -41.6610   -21.0290    -0.3890 H     1 LIG   0.0000
 10 C3     -42.2040   -20.1860    -2.2350 C.3   1 LIG   0.0000
 11 H5     -43.0520   -19.5040    -2.1680 H     1 LIG   0.0000
 12 C4     -42.7930   -21.5870    -2.4830 C.2   1 LIG   0.0000
 13 O3     -43.8190   -21.6640    -3.1300 O.co2 1 LIG   0.0000
 14 C5     -41.2900   -19.7370    -3.4020 C.3   1 LIG   0.0000
 15 H6     -40.5080   -20.4890    -3.5600 H     1 LIG   0.0000
 16 H7     -40.7870   -18.8030    -3.1210 H     1 LIG   0.0000
 17 C6     -42.0370   -19.5100    -4.7300 C.3   1 LIG   0.0000
 18 H8     -42.7840   -18.7150    -4.6120 H     1 LIG   0.0000
 19 H9     -42.5710   -20.4200    -5.0140 H     1 LIG   0.0000
 20 C7     -41.0520   -19.1470    -5.8520 C.3   1 LIG   0.0000
 21 H10    -40.2790   -19.9150    -5.9310 H     1 LIG   0.0000
 22 H11    -40.5640   -18.1970    -5.6230 H     1 LIG   0.0000
 23 N2     -41.6960   -19.0170    -7.2140 N.4   1 LIG   0.0000
 24 H12    -42.4090   -18.2740    -7.2490 H     1 LIG   0.0000
 25 H13    -42.1120   -19.9010    -7.5340 H     1 LIG   0.0000
 26 H14    -40.9700   -18.7600    -7.9080 H     1 LIG   0.0000
 27 O4     -42.3000   -22.5170    -1.8730 O.co2 1 LIG   0.0000
@<TRIPOS>BOND
  1   1   2  ar  
  2   2   3  ar  
  3   2   4  1   
  4   4   5  1   
  5   4   6  1   
  6   4   7  1   
  7   7   8  1   
  8   7   9  1   
  9   7  10  1   
 10  10  11  1   
 11  10  12  1   
 12  10  14  1   
 13  12  13  ar  
 14  12  27  ar  
 15  14  15  1   
 16  14  16  1   
 17  14  17  1   
 18  17  18  1   
 19  17  19  1   
 20  17  20  1   
 21  20  21  1   
 22  20  22  1   
 23  20  23  1   
 24  23  24  1   
 25  23  25  1   
 26  23  26  1   
@<TRIPOS>SUBSTRUCTURE
  1 LIG  10 GROUP 4 **** **** 0
