LIG
                    3D
 Structure written by MMmdl.
 27 26  0  0  1  0            999 V2000
  -42.2510  -16.7380   -0.7450 O   0  0  0  0  0  0
  -41.4390  -17.6240   -0.5580 C   0  0  0  0  0  0
  -40.2340  -17.5250   -0.6810 O   0  5  0  0  0  0
  -41.9660  -18.9610   -0.0460 C   0  0  0  0  0  0
  -43.0560  -18.9430   -0.0470 H   0  0  0  0  0  0
  -41.5980  -19.0920    0.9720 H   0  0  0  0  0  0
  -41.4870  -20.1420   -0.8850 N   0  3  0  0  0  0
  -40.4650  -20.0650   -1.0370 H   0  0  0  0  0  0
  -41.6610  -21.0290   -0.3890 H   0  0  0  0  0  0
  -42.2040  -20.1860   -2.2350 C   0  0  2  0  0  0
  -43.0520  -19.5040   -2.1680 H   0  0  0  0  0  0
  -42.7930  -21.5870   -2.4830 C   0  0  0  0  0  0
  -43.8190  -21.6640   -3.1300 O   0  0  0  0  0  0
  -41.2900  -19.7370   -3.4020 C   0  0  0  0  0  0
  -40.5080  -20.4890   -3.5600 H   0  0  0  0  0  0
  -40.7870  -18.8030   -3.1210 H   0  0  0  0  0  0
  -42.0370  -19.5100   -4.7300 C   0  0  0  0  0  0
  -42.7840  -18.7150   -4.6120 H   0  0  0  0  0  0
  -42.5710  -20.4200   -5.0140 H   0  0  0  0  0  0
  -41.0520  -19.1470   -5.8520 C   0  0  0  0  0  0
  -40.2790  -19.9150   -5.9310 H   0  0  0  0  0  0
  -40.5640  -18.1970   -5.6230 H   0  0  0  0  0  0
  -41.6960  -19.0170   -7.2140 N   0  3  0  0  0  0
  -42.4090  -18.2740   -7.2490 H   0  0  0  0  0  0
  -42.1120  -19.9010   -7.5340 H   0  0  0  0  0  0
  -40.9700  -18.7600   -7.9080 H   0  0  0  0  0  0
  -42.3000  -22.5170   -1.8730 O   0  5  0  0  0  0
  1  2  2  0  0  0
  2  3  1  0  0  0
  2  4  1  0  0  0
  4  5  1  0  0  0
  4  6  1  0  0  0
  4  7  1  0  0  0
  7  8  1  0  0  0
  7  9  1  0  0  0
  7 10  1  0  0  0
 10 11  1  0  0  0
 10 12  1  0  0  0
 10 14  1  0  0  0
 12 13  2  0  0  0
 12 27  1  0  0  0
 14 15  1  0  0  0
 14 16  1  0  0  0
 14 17  1  0  0  0
 17 18  1  0  0  0
 17 19  1  0  0  0
 17 20  1  0  0  0
 20 21  1  0  0  0
 20 22  1  0  0  0
 20 23  1  0  0  0
 23 24  1  0  0  0
 23 25  1  0  0  0
 23 26  1  0  0  0
M  CHG  4   3  -1   7   1  23   1  27  -1
M  END
$$$$
