@<TRIPOS>MOLECULE
LIG
59 61 1 0 0 
SMALL
NO_CHARGES


@<TRIPOS>ATOM
  1 C1     -20.9610   -14.5680     3.2470 C.ar  1 LIG   0.0000
  2 C2     -21.2310   -13.3940     2.5220 C.ar  1 LIG   0.0000
  3 C3     -21.8860   -12.3550     3.2080 C.ar  1 LIG   0.0000
  4 C4     -21.2780   -16.4270     9.0470 C.3   1 LIG   0.0000
  5 H1     -20.5100   -16.4310     9.8300 H     1 LIG   0.0000
  6 H2     -21.1650   -17.3340     8.4390 H     1 LIG   0.0000
  7 H3     -22.2580   -16.4680     9.5400 H     1 LIG   0.0000
  8 N1     -22.2480   -12.4750     4.4880 N.ar  1 LIG   0.0000
  9 N2     -21.3180   -14.6720     4.5290 N.ar  1 LIG   0.0000
 10 C5     -23.1160   -12.7280     7.1170 C.3   1 LIG   0.0000
 11 H4     -24.1250   -12.6580     6.6920 H     1 LIG   0.0000
 12 H5     -22.6190   -11.7540     7.0230 H     1 LIG   0.0000
 13 H6     -23.2060   -12.9580     8.1820 H     1 LIG   0.0000
 14 C6     -21.9370   -13.6300     5.0980 C.ar  1 LIG   0.0000
 15 C7     -19.0970   -17.8720     1.2220 C.3   1 LIG   0.0000
 16 H7     -18.5250   -18.5200     0.5480 H     1 LIG   0.0000
 17 H8     -20.0620   -18.3450     1.4380 H     1 LIG   0.0000
 18 H9     -18.5390   -17.7620     2.1580 H     1 LIG   0.0000
 19 C8     -19.7640   -13.0520    -1.5300 C.3   1 LIG   0.0000
 20 H10    -19.3370   -13.2370    -2.5200 H     1 LIG   0.0000
 21 H11    -19.1960   -12.2470    -1.0530 H     1 LIG   0.0000
 22 H12    -20.8050   -12.7350    -1.6480 H     1 LIG   0.0000
 23 C9     -21.5780    -6.0990     5.2480 C.3   1 LIG   0.0000
 24 H13    -20.7090    -5.9210     5.8830 H     1 LIG   0.0000
 25 H14    -22.4740    -5.6940     5.7200 H     1 LIG   0.0000
 26 H15    -21.4310    -5.6430     4.2680 H     1 LIG   0.0000
 27 C10    -20.3220   -15.6380     2.6100 C.ar  1 LIG   0.0000
 28 H16    -20.1390   -16.5380     3.1880 H     1 LIG   0.0000
 29 C11    -20.8200   -13.2790     1.1780 C.ar  1 LIG   0.0000
 30 H17    -21.0240   -12.3710     0.6240 H     1 LIG   0.0000
 31 C12    -21.1550   -15.1620     8.1710 C.3   1 LIG   0.0000
 32 H18    -20.1900   -15.1500     7.6500 H     1 LIG   0.0000
 33 H19    -21.1760   -14.2870     8.8250 H     1 LIG   0.0000
 34 C13    -22.2970   -15.0850     7.1410 C.3   1 LIG   0.0000
 35 H20    -23.2520   -15.2510     7.6510 H     1 LIG   0.0000
 36 H21    -22.1760   -15.9200     6.4410 H     1 LIG   0.0000
 37 C14    -20.7490    -9.6170     3.8780 C.3   1 LIG   0.0000
 38 H22    -20.7500   -10.2230     4.7930 H     1 LIG   0.0000
 39 H23    -19.8990    -9.9380     3.2710 H     1 LIG   0.0000
 40 C15    -23.2690    -9.3600     3.9640 C.3   1 LIG   0.0000
 41 H24    -24.2050    -9.4690     3.4050 H     1 LIG   0.0000
 42 H25    -23.3530    -9.9890     4.8600 H     1 LIG   0.0000
 43 C16    -20.5830    -8.1350     4.2550 C.3   1 LIG   0.0000
 44 H26    -20.5100    -7.5360     3.3450 H     1 LIG   0.0000
 45 H27    -19.6690    -7.9990     4.8380 H     1 LIG   0.0000
 46 C17    -23.0800    -7.8830     4.3840 C.3   1 LIG   0.0000
 47 H28    -23.8800    -7.5850     5.0660 H     1 LIG   0.0000
 48 H29    -23.1280    -7.2520     3.4950 H     1 LIG   0.0000
 49 C18    -19.9190   -15.5380     1.2640 C.ar  1 LIG   0.0000
 50 C19    -20.1440   -14.3440     0.5550 C.ar  1 LIG   0.0000
 51 C20    -22.0700    -9.8100     3.1010 C.3   1 LIG   0.0000
 52 H30    -22.0250    -9.1310     2.2390 H     1 LIG   0.0000
 53 N3     -22.3380   -13.7800     6.4270 N.pl3 1 LIG   0.0000
 54 N4     -22.2320   -11.1760     2.5630 N.pl3 1 LIG   0.0000
 55 H31    -22.2060   -11.2460     1.5560 H     1 LIG   0.0000
 56 N5     -21.7460    -7.5960     5.0740 N.4   1 LIG   0.0000
 57 H32    -21.7320    -8.0590     5.9990 H     1 LIG   0.0000
 58 O1     -19.2950   -16.5860     0.6130 O.3   1 LIG   0.0000
 59 O2     -19.6910   -14.2510    -0.7450 O.3   1 LIG   0.0000
@<TRIPOS>BOND
  1   1   2  ar  
  2   1   9  ar  
  3   1  27  ar  
  4   2   3  ar  
  5   2  29  ar  
  6   3   8  ar  
  7   3  54  1   
  8   4   5  1   
  9   4   6  1   
 10   4   7  1   
 11   4  31  1   
 12   8  14  ar  
 13   9  14  ar  
 14  10  11  1   
 15  10  12  1   
 16  10  13  1   
 17  10  53  1   
 18  14  53  1   
 19  15  16  1   
 20  15  17  1   
 21  15  18  1   
 22  15  58  1   
 23  19  20  1   
 24  19  21  1   
 25  19  22  1   
 26  19  59  1   
 27  23  24  1   
 28  23  25  1   
 29  23  26  1   
 30  23  56  1   
 31  27  28  1   
 32  27  49  ar  
 33  29  30  1   
 34  29  50  ar  
 35  31  32  1   
 36  31  33  1   
 37  31  34  1   
 38  34  35  1   
 39  34  36  1   
 40  34  53  1   
 41  37  38  1   
 42  37  39  1   
 43  37  43  1   
 44  37  51  1   
 45  40  41  1   
 46  40  42  1   
 47  40  46  1   
 48  40  51  1   
 49  43  44  1   
 50  43  45  1   
 51  43  56  1   
 52  46  47  1   
 53  46  48  1   
 54  46  56  1   
 55  49  50  ar  
 56  49  58  1   
 57  50  59  1   
 58  51  52  1   
 59  51  54  1   
 60  54  55  1   
 61  56  57  1   
@<TRIPOS>SUBSTRUCTURE
  1 LIG   3 GROUP 4 **** **** 0
