LIG
                    3D
 Structure written by MMmdl.
 59 61  0  0  1  0            999 V2000
  -20.9610  -14.5680    3.2470 C   0  0  0  0  0  0
  -21.2310  -13.3940    2.5220 C   0  0  0  0  0  0
  -21.8860  -12.3550    3.2080 C   0  0  0  0  0  0
  -21.2780  -16.4270    9.0470 C   0  0  0  0  0  0
  -20.5100  -16.4310    9.8300 H   0  0  0  0  0  0
  -21.1650  -17.3340    8.4390 H   0  0  0  0  0  0
  -22.2580  -16.4680    9.5400 H   0  0  0  0  0  0
  -22.2480  -12.4750    4.4880 N   0  0  0  0  0  0
  -21.3180  -14.6720    4.5290 N   0  0  0  0  0  0
  -23.1160  -12.7280    7.1170 C   0  0  0  0  0  0
  -24.1250  -12.6580    6.6920 H   0  0  0  0  0  0
  -22.6190  -11.7540    7.0230 H   0  0  0  0  0  0
  -23.2060  -12.9580    8.1820 H   0  0  0  0  0  0
  -21.9370  -13.6300    5.0980 C   0  0  0  0  0  0
  -19.0970  -17.8720    1.2220 C   0  0  0  0  0  0
  -18.5250  -18.5200    0.5480 H   0  0  0  0  0  0
  -20.0620  -18.3450    1.4380 H   0  0  0  0  0  0
  -18.5390  -17.7620    2.1580 H   0  0  0  0  0  0
  -19.7640  -13.0520   -1.5300 C   0  0  0  0  0  0
  -19.3370  -13.2370   -2.5200 H   0  0  0  0  0  0
  -19.1960  -12.2470   -1.0530 H   0  0  0  0  0  0
  -20.8050  -12.7350   -1.6480 H   0  0  0  0  0  0
  -21.5780   -6.0990    5.2480 C   0  0  0  0  0  0
  -20.7090   -5.9210    5.8830 H   0  0  0  0  0  0
  -22.4740   -5.6940    5.7200 H   0  0  0  0  0  0
  -21.4310   -5.6430    4.2680 H   0  0  0  0  0  0
  -20.3220  -15.6380    2.6100 C   0  0  0  0  0  0
  -20.1390  -16.5380    3.1880 H   0  0  0  0  0  0
  -20.8200  -13.2790    1.1780 C   0  0  0  0  0  0
  -21.0240  -12.3710    0.6240 H   0  0  0  0  0  0
  -21.1550  -15.1620    8.1710 C   0  0  0  0  0  0
  -20.1900  -15.1500    7.6500 H   0  0  0  0  0  0
  -21.1760  -14.2870    8.8250 H   0  0  0  0  0  0
  -22.2970  -15.0850    7.1410 C   0  0  0  0  0  0
  -23.2520  -15.2510    7.6510 H   0  0  0  0  0  0
  -22.1760  -15.9200    6.4410 H   0  0  0  0  0  0
  -20.7490   -9.6170    3.8780 C   0  0  0  0  0  0
  -20.7500  -10.2230    4.7930 H   0  0  0  0  0  0
  -19.8990   -9.9380    3.2710 H   0  0  0  0  0  0
  -23.2690   -9.3600    3.9640 C   0  0  0  0  0  0
  -24.2050   -9.4690    3.4050 H   0  0  0  0  0  0
  -23.3530   -9.9890    4.8600 H   0  0  0  0  0  0
  -20.5830   -8.1350    4.2550 C   0  0  0  0  0  0
  -20.5100   -7.5360    3.3450 H   0  0  0  0  0  0
  -19.6690   -7.9990    4.8380 H   0  0  0  0  0  0
  -23.0800   -7.8830    4.3840 C   0  0  0  0  0  0
  -23.8800   -7.5850    5.0660 H   0  0  0  0  0  0
  -23.1280   -7.2520    3.4950 H   0  0  0  0  0  0
  -19.9190  -15.5380    1.2640 C   0  0  0  0  0  0
  -20.1440  -14.3440    0.5550 C   0  0  0  0  0  0
  -22.0700   -9.8100    3.1010 C   0  0  2  0  0  0
  -22.0250   -9.1310    2.2390 H   0  0  0  0  0  0
  -22.3380  -13.7800    6.4270 N   0  0  0  0  0  0
  -22.2320  -11.1760    2.5630 N   0  0  0  0  0  0
  -22.2060  -11.2460    1.5560 H   0  0  0  0  0  0
  -21.7460   -7.5960    5.0740 N   0  3  2  0  0  0
  -21.7320   -8.0590    5.9990 H   0  0  0  0  0  0
  -19.2950  -16.5860    0.6130 O   0  0  0  0  0  0
  -19.6910  -14.2510   -0.7450 O   0  0  0  0  0  0
  1  2  1  0  0  0
  1  9  2  0  0  0
  1 27  1  0  0  0
  2  3  2  0  0  0
  2 29  1  0  0  0
  3  8  1  0  0  0
  3 54  1  0  0  0
  4  5  1  0  0  0
  4  6  1  0  0  0
  4  7  1  0  0  0
  4 31  1  0  0  0
  8 14  2  0  0  0
  9 14  1  0  0  0
 10 11  1  0  0  0
 10 12  1  0  0  0
 10 13  1  0  0  0
 10 53  1  0  0  0
 14 53  1  0  0  0
 15 16  1  0  0  0
 15 17  1  0  0  0
 15 18  1  0  0  0
 15 58  1  0  0  0
 19 20  1  0  0  0
 19 21  1  0  0  0
 19 22  1  0  0  0
 19 59  1  0  0  0
 23 24  1  0  0  0
 23 25  1  0  0  0
 23 26  1  0  0  0
 23 56  1  0  0  0
 27 28  1  0  0  0
 27 49  2  0  0  0
 29 30  1  0  0  0
 29 50  2  0  0  0
 31 32  1  0  0  0
 31 33  1  0  0  0
 31 34  1  0  0  0
 34 35  1  0  0  0
 34 36  1  0  0  0
 34 53  1  0  0  0
 37 38  1  0  0  0
 37 39  1  0  0  0
 37 43  1  0  0  0
 37 51  1  0  0  0
 40 41  1  0  0  0
 40 42  1  0  0  0
 40 46  1  0  0  0
 40 51  1  0  0  0
 43 44  1  0  0  0
 43 45  1  0  0  0
 43 56  1  0  0  0
 46 47  1  0  0  0
 46 48  1  0  0  0
 46 56  1  0  0  0
 49 50  1  0  0  0
 49 58  1  0  0  0
 50 59  1  0  0  0
 51 52  1  0  0  0
 51 54  1  0  0  0
 54 55  1  0  0  0
 56 57  1  0  0  0
M  CHG  1  56   1
M  END
$$$$
